12

H         -1.91652       -2.06120       -0.00000
H         -4.22352       -1.14740        0.00000
H         -4.58565        1.30741        0.00000
H         -2.64079        2.84843       -0.00000
H         -0.33379        1.93464       -0.00000
H          0.02835       -0.52017       -0.00000
C         -3.57938        0.90883        0.00000
C         -3.37520       -0.47524       -0.00000
C         -2.48283        1.77768       -0.00000
C         -1.18211        1.26247       -0.00000
C         -0.97793       -0.12159       -0.00000
C         -2.07448       -0.99045       -0.00000
